/*--------------------------------*- C++ -*----------------------------------*\
  =========                 |
  \\      /  F ield         | OpenFOAM: The Open Source CFD Toolbox
   \\    /   O peration     | Website:  https://openfoam.org
    \\  /    A nd           | Version:  10
     \\/     M anipulation  |
\*---------------------------------------------------------------------------*/
FoamFile
{
    format      ascii;
    class       polyBoundaryMesh;
    location    "constant/polyMesh";
    object      boundary;
}
// * * * * * * * * * * * * * * * * * * * * * * * * * * * * * * * * * * * * * //

6
(
    back
    {
        type            patch;
        nFaces          4800;
        startFace       565600;
    }
    front
    {
        type            patch;
        nFaces          4800;
        startFace       570400;
    }
    leftWall
    {
        type            patch;
        nFaces          3200;
        startFace       575200;
    }
    rightWall
    {
        type            patch;
        nFaces          3200;
        startFace       578400;
    }
    topWall
    {
        type            patch;
        nFaces          2400;
        startFace       581600;
    }
    bottomWall
    {
        type            wall;
        inGroups        List<word> 1(wall);
        nFaces          2400;
        startFace       584000;
    }
)

// ************************************************************************* //
